Version 4
SHEET 1 880 680
WIRE 384 16 128 16
WIRE -208 32 -448 32
WIRE -208 160 -208 32
WIRE 128 160 128 16
WIRE 128 160 -208 160
TEXT -448 168 Left 2 !.tran 10
